<?xml version="1.0" encoding="UTF-8"?>

<!-- generated on 2022-08-07 11:22:15 by Eclipse SUMO netconvert Version 1.14.1
<configuration xmlns:xsi="http://www.w3.org/2001/XMLSchema-instance" xsi:noNamespaceSchemaLocation="http://sumo.dlr.de/xsd/netconvertConfiguration.xsd">

    <input>
        <osm-files value="berlin.osm"/>
    </input>

    <output>
        <output-file value="berlin.net.xml"/>
    </output>

    <projection>
        <proj.utm value="true"/>
    </projection>

    <processing>
        <geometry.remove value="true"/>
        <lefthand value="true"/>
    </processing>

    <tls_building>
        <tls.discard-simple value="true"/>
        <tls.join value="true"/>
        <tls.guess-signals value="true"/>
        <tls.default-type value="actuated"/>
    </tls_building>

    <ramp_guessing>
        <ramps.guess value="true"/>
    </ramp_guessing>

    <junctions>
        <junctions.join value="true"/>
    </junctions>

</configuration>
-->

<net version="1.9" junctionCornerDetail="5" lefthand="true" limitTurnSpeed="5.50" xmlns:xsi="http://www.w3.org/2001/XMLSchema-instance" xsi:noNamespaceSchemaLocation="http://sumo.dlr.de/xsd/net_file.xsd">

    <location netOffset="-390237.06,-5818363.23" convBoundary="0.00,-0.00,1380.70,1170.54" origBoundary="13.378314,52.504470,13.402932,52.514997" projParameter="+proj=utm +zone=33 +ellps=WGS84 +datum=WGS84 +units=m +no_defs"/>

    <type id="highway.bridleway" priority="1" numLanes="1" speed="2.78" allow="pedestrian" oneway="1" width="2.00"/>
    <type id="highway.bus_guideway" priority="1" numLanes="1" speed="27.78" allow="bus" oneway="1"/>
    <type id="highway.cycleway" priority="1" numLanes="1" speed="5.56" allow="bicycle" oneway="0" width="1.00"/>
    <type id="highway.footway" priority="1" numLanes="1" speed="2.78" allow="pedestrian" oneway="1" width="2.00"/>
    <type id="highway.ford" priority="1" numLanes="1" speed="2.78" allow="army" oneway="0"/>
    <type id="highway.living_street" priority="2" numLanes="1" speed="2.78" disallow="tram rail_urban rail rail_electric rail_fast ship" oneway="0"/>
    <type id="highway.motorway" priority="14" numLanes="2" speed="39.44" allow="private emergency authority army vip passenger hov taxi bus coach delivery truck trailer motorcycle evehicle custom1 custom2" oneway="1"/>
    <type id="highway.motorway_link" priority="9" numLanes="1" speed="22.22" allow="private emergency authority army vip passenger hov taxi bus coach delivery truck trailer motorcycle evehicle custom1 custom2" oneway="1"/>
    <type id="highway.path" priority="1" numLanes="1" speed="5.56" allow="pedestrian bicycle" oneway="0" width="2.00"/>
    <type id="highway.pedestrian" priority="1" numLanes="1" speed="2.78" allow="pedestrian" oneway="1" width="2.00"/>
    <type id="highway.primary" priority="12" numLanes="2" speed="27.78" disallow="tram rail_urban rail rail_electric rail_fast ship" oneway="0"/>
    <type id="highway.primary_link" priority="7" numLanes="1" speed="22.22" disallow="tram rail_urban rail rail_electric rail_fast ship" oneway="0"/>
    <type id="highway.raceway" priority="15" numLanes="2" speed="83.33" allow="vip" oneway="0"/>
    <type id="highway.residential" priority="3" numLanes="1" speed="13.89" disallow="tram rail_urban rail rail_electric rail_fast ship" oneway="0"/>
    <type id="highway.secondary" priority="11" numLanes="1" speed="27.78" disallow="tram rail_urban rail rail_electric rail_fast ship" oneway="0"/>
    <type id="highway.secondary_link" priority="6" numLanes="1" speed="22.22" disallow="tram rail_urban rail rail_electric rail_fast ship" oneway="0"/>
    <type id="highway.service" priority="1" numLanes="1" speed="5.56" allow="pedestrian delivery bicycle" oneway="0"/>
    <type id="highway.stairs" priority="1" numLanes="1" speed="1.39" allow="pedestrian" oneway="1" width="2.00"/>
    <type id="highway.step" priority="1" numLanes="1" speed="1.39" allow="pedestrian" oneway="1" width="2.00"/>
    <type id="highway.steps" priority="1" numLanes="1" speed="1.39" allow="pedestrian" oneway="1" width="2.00"/>
    <type id="highway.tertiary" priority="10" numLanes="1" speed="22.22" disallow="tram rail_urban rail rail_electric rail_fast ship" oneway="0"/>
    <type id="highway.tertiary_link" priority="5" numLanes="1" speed="22.22" disallow="tram rail_urban rail rail_electric rail_fast ship" oneway="0"/>
    <type id="highway.track" priority="1" numLanes="1" speed="5.56" allow="pedestrian motorcycle moped bicycle" oneway="0"/>
    <type id="highway.trunk" priority="13" numLanes="2" speed="27.78" disallow="pedestrian bicycle tram rail_urban rail rail_electric rail_fast ship" oneway="0"/>
    <type id="highway.trunk_link" priority="8" numLanes="1" speed="22.22" disallow="pedestrian bicycle tram rail_urban rail rail_electric rail_fast ship" oneway="0"/>
    <type id="highway.unclassified" priority="4" numLanes="1" speed="13.89" disallow="tram rail_urban rail rail_electric rail_fast ship" oneway="0"/>
    <type id="highway.unsurfaced" priority="1" numLanes="1" speed="8.33" disallow="tram rail_urban rail rail_electric rail_fast ship" oneway="0"/>
    <type id="railway.highspeed" priority="21" numLanes="1" speed="69.44" allow="rail_fast" oneway="1"/>
    <type id="railway.light_rail" priority="19" numLanes="1" speed="27.78" allow="rail_urban" oneway="1"/>
    <type id="railway.preserved" priority="16" numLanes="1" speed="27.78" allow="rail" oneway="1"/>
    <type id="railway.rail" priority="20" numLanes="1" speed="44.44" allow="rail" oneway="1"/>
    <type id="railway.subway" priority="18" numLanes="1" speed="27.78" allow="rail_urban" oneway="1"/>
    <type id="railway.tram" priority="17" numLanes="1" speed="13.89" allow="tram" oneway="1"/>

    <edge id=":1001074214_0" function="internal">
        <lane id=":1001074214_0_0" index="0" disallow="tram rail_urban rail rail_electric rail_fast ship" speed="13.89" length="5.00" shape="905.03,702.49 910.03,702.81"/>
        <lane id=":1001074214_0_1" index="1" disallow="tram rail_urban rail rail_electric rail_fast ship" speed="13.89" length="5.00" shape="905.24,699.30 910.23,699.62"/>
        <lane id=":1001074214_0_2" index="2" disallow="tram rail_urban rail rail_electric rail_fast ship" speed="13.89" length="5.00" shape="905.44,696.11 910.43,696.43"/>
    </edge>
    <edge id=":1001074218_0" function="internal">
        <lane id=":1001074218_0_0" index="0" disallow="tram rail_urban rail rail_electric rail_fast ship" speed="13.89" length="4.99" shape="934.07,704.34 939.04,704.66"/>
        <lane id=":1001074218_0_1" index="1" disallow="tram rail_urban rail rail_electric rail_fast ship" speed="13.89" length="4.99" shape="934.27,701.14 939.25,701.47"/>
        <lane id=":1001074218_0_2" index="2" disallow="tram rail_urban rail rail_electric rail_fast ship" speed="13.89" length="4.99" shape="934.48,697.95 939.46,698.27"/>
    </edge>
    <edge id=":1041979356_0" function="internal">
        <lane id=":1041979356_0_0" index="0" allow="pedestrian delivery bicycle" speed="5.09" length="5.12" shape="708.73,770.96 707.39,770.66 706.46,769.99 705.96,768.93 705.87,767.50"/>
    </edge>
    <edge id=":1041979356_1" function="internal">
        <lane id=":1041979356_1_0" index="0" disallow="tram rail_urban rail rail_electric rail_fast ship" speed="8.33" length="6.34" shape="708.73,770.96 702.43,770.23"/>
    </edge>
    <edge id=":1041979356_2" function="internal">
        <lane id=":1041979356_2_0" index="0" disallow="tram rail_urban rail rail_electric rail_fast ship" speed="8.33" length="6.62" shape="701.93,773.39 708.50,774.15"/>
    </edge>
    <edge id=":1041979356_3" function="internal">
        <lane id=":1041979356_3_0" index="0" allow="pedestrian delivery bicycle" speed="6.00" length="8.00" shape="701.93,773.39 703.48,773.23 704.65,772.19 705.45,770.28 705.87,767.50"/>
    </edge>
    <edge id=":1041979358_0" function="internal">
        <lane id=":1041979358_0_0" index="0" disallow="tram rail_urban rail rail_electric rail_fast ship" speed="8.33" length="6.34" shape="617.15,745.30 616.72,751.63"/>
    </edge>
    <edge id=":1041979358_1" function="internal">
        <lane id=":1041979358_1_0" index="0" allow="pedestrian delivery bicycle" speed="5.06" length="5.04" shape="623.22,748.92 621.86,748.61 620.93,747.95 620.42,746.93 620.33,745.57"/>
    </edge>
    <edge id=":1041979358_2" function="internal">
        <lane id=":1041979358_2_0" index="0" allow="pedestrian delivery bicycle" speed="6.05" length="7.85" shape="623.22,748.92 620.44,748.89 618.43,749.33 617.19,750.24 616.72,751.63"/>
    </edge>
    <edge id=":1041979358_3" function="internal">
        <lane id=":1041979358_3_0" index="0" disallow="tram rail_urban rail rail_electric rail_fast ship" speed="8.33" length="6.25" shape="619.91,751.80 620.33,745.57"/>
    </edge>
    <edge id=":1141824924_0" function="internal">
        <lane id=":1141824924_0_0" index="0" disallow="tram rail_urban rail rail_electric rail_fast ship" speed="8.33" length="5.56" shape="665.92,678.71 667.22,679.79 667.63,681.17 668.06,682.51 669.41,683.46"/>
        <lane id=":1141824924_0_1" index="1" disallow="tram rail_urban rail rail_electric rail_fast ship" speed="8.33" length="5.56" shape="667.12,675.74 668.36,676.80 668.71,678.16 669.07,679.47 670.35,680.40"/>
        <lane id=":1141824924_0_2" index="2" disallow="tram rail_urban rail rail_electric rail_fast ship" speed="8.33" length="5.56" shape="667.12,675.74 671.30,677.35"/>
        <lane id=":1141824924_0_3" index="3" disallow="tram rail_urban rail rail_electric rail_fast ship" speed="8.33" length="5.56" shape="667.12,675.74 668.61,675.83 669.65,675.10 670.72,674.33 672.24,674.29"/>
    </edge>
    <edge id=":1141824954_0" function="internal">
        <lane id=":1141824954_0_0" index="0" disallow="tram rail_urban rail rail_electric rail_fast ship" speed="8.33" length="5.00" shape="681.56,569.17 676.58,568.77"/>
    </edge>
    <edge id=":1141824954_1" function="internal">
        <lane id=":1141824954_1_0" index="0" disallow="tram rail_urban rail rail_electric rail_fast ship" speed="8.33" length="5.00" shape="676.32,571.96 681.30,572.36"/>
    </edge>
    <edge id=":1141824967_0" function="internal">
        <lane id=":1141824967_0_0" index="0" disallow="tram rail_urban rail rail_electric rail_fast ship" speed="8.33" length="5.20" shape="713.46,571.77 708.28,571.35"/>
    </edge>
    <edge id=":1141824967_1" function="internal">
        <lane id=":1141824967_1_0" index="0" disallow="tram rail_urban rail rail_electric rail_fast ship" speed="8.33" length="5.20" shape="708.02,574.54 713.20,574.96"/>
    </edge>
    <edge id=":1141829801_0" function="internal">
        <lane id=":1141829801_0_0" index="0" disallow="tram rail_urban rail rail_electric rail_fast ship" speed="8.33" length="9.40" shape="725.71,572.76 716.34,572.00"/>
    </edge>
    <edge id=":1141829801_1" function="internal">
        <lane id=":1141829801_1_0" index="0" allow="pedestrian delivery bicycle" speed="6.88" length="3.25" shape="725.71,572.76 722.94,572.93 722.51,573.15"/>
    </edge>
    <edge id=":1141829801_7" function="internal">
        <lane id=":1141829801_7_0" index="0" allow="pedestrian delivery bicycle" speed="6.88" length="6.91" shape="722.51,573.15 720.88,573.95 719.54,575.82 718.91,578.54"/>
    </edge>
    <edge id=":1141829801_2" function="internal">
        <lane id=":1141829801_2_0" index="0" allow="pedestrian delivery bicycle" speed="5.06" length="5.02" shape="722.10,578.82 722.41,577.47 723.07,576.54 724.09,576.04 725.45,575.95"/>
    </edge>
    <edge id=":1141829801_3" function="internal">
        <lane id=":1141829801_3_0" index="0" allow="pedestrian delivery bicycle" speed="6.86" length="10.19" shape="722.10,578.82 721.94,576.03 720.93,573.96 719.06,572.62 716.34,572.00"/>
    </edge>
    <edge id=":1141829801_4" function="internal">
        <lane id=":1141829801_4_0" index="0" allow="pedestrian delivery bicycle" speed="3.65" length="4.67" shape="722.10,578.82 721.41,577.55 720.64,577.09 719.81,577.42 718.91,578.54"/>
    </edge>
    <edge id=":1141829801_5" function="internal">
        <lane id=":1141829801_5_0" index="0" allow="pedestrian delivery bicycle" speed="5.03" length="5.01" shape="716.08,575.19 717.42,575.50 718.34,576.16 718.83,577.17 718.91,578.54"/>
    </edge>
    <edge id=":1141829801_6" function="internal">
        <lane id=":1141829801_6_0" index="0" disallow="tram rail_urban rail rail_electric rail_fast ship" speed="8.33" length="9.40" shape="716.08,575.19 725.45,575.95"/>
    </edge>
    <edge id=":1141829811_0" function="internal">
        <lane id=":1141829811_0_0" index="0" allow="pedestrian delivery bicycle" speed="6.95" length="0.31" shape="751.93,622.26 751.62,622.24"/>
    </edge>
    <edge id=":1141829811_1" function="internal">
        <lane id=":1141829811_1_0" index="0" allow="pedestrian delivery bicycle" speed="6.95" length="0.27" shape="751.43,625.44 751.69,625.45"/>
    </edge>
    <edge id=":1204940509_0" function="internal">
        <lane id=":1204940509_0_0" index="0" allow="pedestrian delivery bicycle" speed="5.19" length="5.19" shape="697.52,865.41 697.16,866.84 696.47,867.83 695.46,868.38 694.11,868.49"/>
    </edge>
    <edge id=":1204940509_1" function="internal">
        <lane id=":1204940509_1_0" index="0" allow="pedestrian delivery bicycle" speed="5.56" length="10.39" shape="697.52,865.41 697.59,868.28 698.57,870.39 700.46,871.75 703.26,872.36"/>
    </edge>
    <edge id=":1204940509_2" function="internal">
        <lane id=":1204940509_2_0" index="0" allow="pedestrian delivery bicycle" speed="2.78" length="4.67" shape="697.52,865.41 698.18,866.70 698.92,867.19 699.76,866.89 700.70,865.79"/>
    </edge>
    <edge id=":1204940509_3" function="internal">
        <lane id=":1204940509_3_0" index="0" allow="pedestrian delivery bicycle" speed="4.99" length="5.05" shape="703.49,869.17 702.13,868.87 701.21,868.21 700.73,867.18 700.70,865.79"/>
    </edge>
    <edge id=":1204940509_4" function="internal">
        <lane id=":1204940509_4_0" index="0" disallow="tram rail_urban rail rail_electric rail_fast ship" speed="8.33" length="9.41" shape="703.49,869.17 694.11,868.49"/>
    </edge>
    <edge id=":1204940509_5" function="internal">
        <lane id=":1204940509_5_0" index="0" disallow="tram rail_urban rail rail_electric rail_fast ship" speed="8.33" length="9.40" shape="693.88,871.69 703.26,872.36"/>
    </edge>
    <edge id=":1204940509_6" function="internal">
        <lane id=":1204940509_6_0" index="0" allow="pedestrian delivery bicycle" speed="5.56" length="3.18" shape="693.88,871.69 696.58,871.48 697.00,871.27"/>
    </edge>
    <edge id=":1204940509_7" function="internal">
        <lane id=":1204940509_7_0" index="0" allow="pedestrian delivery bicycle" speed="5.56" length="7.00" shape="697.00,871.27 698.62,870.43 699.99,868.53 700.70,865.79"/>
    </edge>
    <edge id=":1204940520_0" function="internal">
        <lane id=":1204940520_0_0" index="0" allow="pedestrian delivery bicycle" speed="5.03" length="5.01" shape="740.87,849.24 740.57,850.58 739.92,851.50 738.90,852.00 737.53,852.09"/>
    </edge>
    <edge id=":1204940520_1" function="internal">
        <lane id=":1204940520_1_0" index="0" disallow="tram rail_urban rail rail_electric rail_fast ship" speed="8.33" length="9.40" shape="740.87,849.24 740.15,858.61"/>
    </edge>
    <edge id=":1204940520_2" function="internal">
        <lane id=":1204940520_2_0" index="0" disallow="tram rail_urban rail rail_electric rail_fast ship" speed="8.33" length="9.40" shape="743.34,858.86 744.06,849.49"/>
    </edge>
    <edge id=":1204940520_3" function="internal">
        <lane id=":1204940520_3_0" index="0" allow="pedestrian delivery bicycle" speed="5.56" length="3.25" shape="743.34,858.86 743.16,856.09 742.94,855.66"/>
    </edge>
    <edge id=":1204940520_7" function="internal">
        <lane id=":1204940520_7_0" index="0" allow="pedestrian delivery bicycle" speed="5.56" length="6.91" shape="742.94,855.66 742.13,854.04 740.25,852.70 737.53,852.09"/>
    </edge>
    <edge id=":1204940520_4" function="internal">
        <lane id=":1204940520_4_0" index="0" allow="pedestrian delivery bicycle" speed="5.06" length="5.02" shape="737.27,855.27 738.62,855.58 739.55,856.24 740.06,857.25 740.15,858.61"/>
    </edge>
    <edge id=":1204940520_5" function="internal">
        <lane id=":1204940520_5_0" index="0" allow="pedestrian delivery bicycle" speed="5.56" length="10.19" shape="737.27,855.27 740.06,855.11 742.12,854.09 743.45,852.21 744.06,849.49"/>
    </edge>
    <edge id=":1204940520_6" function="internal">
        <lane id=":1204940520_6_0" index="0" allow="pedestrian delivery bicycle" speed="2.78" length="4.67" shape="737.27,855.27 738.53,854.58 738.99,853.81 738.66,852.98 737.53,852.09"/>
    </edge>
    <edge id=":1224803317_0" function="internal">
        <lane id=":1224803317_0_0" index="0" disallow="tram rail_urban rail rail_electric rail_fast ship" speed="13.89" length="5.81" shape="1017.09,190.84 1014.23,185.63"/>
        <lane id=":1224803317_0_1" index="1" disallow="tram rail_urban rail rail_electric rail_fast ship" speed="13.89" length="5.81" shape="1014.21,192.25 1011.48,187.27"/>
    </edge>
    <edge id=":1224803317_2" function="internal">
        <lane id=":1224803317_2_0" index="0" disallow="tram rail_urban rail rail_electric rail_fast ship" speed="13.89" length="5.27" shape="1005.99,190.56 1008.46,195.06"/>
        <lane id=":1224803317_2_1" index="1" disallow="tram rail_urban rail rail_electric rail_fast ship" speed="13.89" length="5.27" shape="1008.74,188.92 1011.34,193.65"/>
    </edge>
    <edge id=":1263283307_0" function="internal">
        <lane id=":1263283307_0_0" index="0" disallow="tram rail_urban rail rail_electric rail_fast ship" speed="13.89" length="5.08" shape="773.81,691.31 778.87,691.75"/>
        <lane id=":1263283307_0_1" index="1" disallow="tram rail_urban rail rail_electric rail_fast ship" speed="13.89" length="5.08" shape="774.09,688.12 779.15,688.56"/>
        <lane id=":1263283307_0_2" index="2" disallow="tram rail_urban rail rail_electric rail_fast ship" speed="13.89" length="5.08" shape="774.37,684.93 779.43,685.37"/>
    </edge>
    <edge id=":1263298606_0" function="internal">
        <lane id=":1263298606_0_0" index="0" disallow="tram rail_urban rail rail_electric rail_fast ship" speed="2.78" length="5.13" shape="1091.55,133.34 1087.03,135.76"/>
    </edge>
    <edge id=":1263298606_1" function="internal">
        <lane id=":1263298606_1_0" index="0" disallow="tram rail_urban rail rail_electric rail_fast ship" speed="2.78" length="5.13" shape="1088.54,138.58 1093.06,136.16"/>
    </edge>
    <edge id=":1349668349_0" function="internal">
        <lane id=":1349668349_0_0" index="0" disallow="tram rail_urban rail rail_electric rail_fast ship" speed="3.65" length="4.67" shape="1352.02,809.45 1352.44,808.07 1352.24,807.19 1351.43,806.83 1349.99,806.97"/>
    </edge>
    <edge id=":1480405456_0" function="internal">
        <lane id=":1480405456_0_0" index="0" disallow="tram rail_urban rail rail_electric rail_fast ship" speed="13.89" length="5.45" shape="1029.62,216.45 1027.21,211.54"/>
        <lane id=":1480405456_0_1" index="1" disallow="tram rail_urban rail rail_electric rail_fast ship" speed="13.89" length="5.45" shape="1026.73,217.82 1024.33,212.95"/>
    </edge>
    <edge id=":1480405456_2" function="internal">
        <lane id=":1480405456_2_0" index="0" disallow="tram rail_urban rail rail_electric rail_fast ship" speed="13.89" length="5.36" shape="1018.58,215.76 1020.94,220.55"/>
        <lane id=":1480405456_2_1" index="1" disallow="tram rail_urban rail rail_electric rail_fast ship" speed="13.89" length="5.36" shape="1021.46,214.35 1023.84,219.18"/>
    </edge>
    <edge id=":1480405474_0" function="internal">
        <lane id=":1480405474_0_0" index="0" disallow="tram rail_urban rail rail_electric rail_fast ship" speed="13.89" length="5.15" shape="1018.98,288.62 1017.46,288.67 1016.41,288.69 1015.36,288.67 1013.84,288.59"/>
    </edge>
    <edge id=":1480405474_1" function="internal">
        <lane id=":1480405474_1_0" index="0" disallow="tram rail_urban rail rail_electric rail_fast ship" speed="13.89" length="5.44" shape="1013.66,291.78 1015.27,291.87 1016.37,291.89 1017.48,291.87 1019.09,291.82"/>
    </edge>
    <edge id=":1602223935_0" function="internal">
        <lane id=":1602223935_0_0" index="0" disallow="tram rail_urban rail rail_electric rail_fast ship" speed="8.33" length="9.38" shape="748.54,752.85 747.71,762.19"/>
    </edge>
    <edge id=":1602223935_1" function="internal">
        <lane id=":1602223935_1_0" index="0" allow="pedestrian delivery bicycle" speed="6.95" length="2.85" shape="748.54,752.85 748.90,755.67"/>
    </edge>
    <edge id=":1602223935_8" function="internal">
        <lane id=":1602223935_8_0" index="0" allow="pedestrian delivery bicycle" speed="6.95" length="10.06" shape="748.90,755.67 750.51,757.80 753.38,759.22 757.51,759.94"/>
    </edge>
    <edge id=":1602223935_2" function="internal">
        <lane id=":1602223935_2_0" index="0" allow="pedestrian delivery bicycle" speed="5.03" length="5.01" shape="757.75,756.75 756.41,756.45 755.49,755.79 754.99,754.78 754.92,753.41"/>
    </edge>
    <edge id=":1602223935_3" function="internal">
        <lane id=":1602223935_3_0" index="0" allow="pedestrian delivery bicycle" speed="6.95" length="12.82" shape="757.75,756.75 753.57,756.82 750.50,757.74 748.55,759.53 747.71,762.19"/>
    </edge>
    <edge id=":1602223935_4" function="internal">
        <lane id=":1602223935_4_0" index="0" allow="pedestrian delivery bicycle" speed="3.65" length="4.67" shape="757.75,756.75 756.50,757.46 756.04,758.22 756.37,759.05 757.51,759.94"/>
    </edge>
    <edge id=":1602223935_5" function="internal">
        <lane id=":1602223935_5_0" index="0" allow="pedestrian delivery bicycle" speed="5.08" length="5.04" shape="754.09,762.76 754.41,761.44 755.08,760.53 756.12,760.03 757.51,759.94"/>
    </edge>
    <edge id=":1602223935_6" function="internal">
        <lane id=":1602223935_6_0" index="0" disallow="tram rail_urban rail rail_electric rail_fast ship" speed="8.33" length="9.39" shape="754.09,762.76 754.92,753.41"/>
        <lane id=":1602223935_6_1" index="1" disallow="tram rail_urban rail rail_electric rail_fast ship" speed="8.33" length="9.39" shape="750.90,762.48 751.73,753.13"/>
    </edge>
    <edge id=":1602223940_0" function="internal">
        <lane id=":1602223940_0_0" index="0" allow="pedestrian delivery bicycle" speed="3.65" length="4.67" shape="796.21,762.72 797.46,762.01 797.92,761.24 797.58,760.41 796.44,759.53"/>
    </edge>
    <edge id=":1602223960_0" function="internal">
        <lane id=":1602223960_0_0" index="0" allow="pedestrian delivery bicycle" speed="5.03" length="5.01" shape="813.02,780.91 811.68,780.60 810.76,779.94 810.27,778.93 810.20,777.55"/>
    </edge>
    <edge id=":1602223960_1" function="internal">
        <lane id=":1602223960_1_0" index="0" disallow="tram rail_urban rail rail_electric rail_fast ship" speed="8.33" length="6.18" shape="813.02,780.91 806.86,780.44"/>
    </edge>
    <edge id=":1602223960_2" function="internal">
        <lane id=":1602223960_2_0" index="0" disallow="tram rail_urban rail rail_electric rail_fast ship" speed="8.33" length="6.14" shape="806.64,783.64 812.76,784.10"/>
    </edge>
    <edge id=":1602223960_3" function="internal">
        <lane id=":1602223960_3_0" index="0" allow="pedestrian delivery bicycle" speed="6.12" length="7.74" shape="806.64,783.64 807.98,783.33 809.02,782.22 809.76,780.29 810.20,777.55"/>
    </edge>
    <edge id=":1602223961_0" function="internal">
        <lane id=":1602223961_0_0" index="0" allow="pedestrian delivery bicycle" speed="5.03" length="5.02" shape="903.12,785.17 902.83,786.52 902.18,787.44 901.17,787.95 899.80,788.03"/>
    </edge>
    <edge id=":1602223961_1" function="internal">
        <lane id=":1602223961_1_0" index="0" allow="pedestrian delivery bicycle" speed="6.10" length="7.76" shape="903.12,785.17 903.12,787.95 903.56,789.96 904.43,791.22 905.74,791.72"/>
    </edge>
    <edge id=":1602223961_2" function="internal">
        <lane id=":1602223961_2_0" index="0" disallow="tram rail_urban rail rail_electric rail_fast ship" speed="8.33" length="6.21" shape="905.98,788.53 899.80,788.03"/>
    </edge>
    <edge id=":1602223961_3" function="internal">
        <lane id=":1602223961_3_0" index="0" disallow="tram rail_urban rail rail_electric rail_fast ship" speed="8.33" length="6.22" shape="899.54,791.22 905.74,791.72"/>
    </edge>
    <edge id=":1602223963_0" function="internal">
        <lane id=":1602223963_0_0" index="0" allow="pedestrian delivery bicycle" speed="3.65" length="4.67" shape="1187.55,819.64 1186.20,819.13 1185.32,819.27 1184.90,820.07 1184.95,821.51"/>
    </edge>
    <edge id=":1602223963_1" function="internal">
        <lane id=":1602223963_1_0" index="0" allow="pedestrian delivery bicycle" speed="5.56" length="2.75" shape="1185.02,818.76 1184.95,821.51"/>
    </edge>
    <edge id=":1602595956_0" function="internal">
        <lane id=":1602595956_0_0" index="0" allow="pedestrian delivery bicycle" speed="5.56" length="1.75" shape="1183.24,819.09 1184.91,818.59"/>
    </edge>
    <edge id=":1602595956_1" function="internal">
        <lane id=":1602595956_1_0" index="0" allow="pedestrian delivery bicycle" speed="3.65" length="4.67" shape="1183.24,819.09 1184.64,819.45 1185.50,819.21 1185.82,818.37 1185.61,816.95"/>
    </edge>
    <edge id=":1602766781_0" function="internal">
        <lane id=":1602766781_0_0" index="0" disallow="tram rail_urban rail rail_electric rail_fast ship" speed="8.33" length="5.00" shape="629.49,595.39 629.09,600.37"/>
    </edge>
    <edge id=":1602766781_1" function="internal">
        <lane id=":1602766781_1_0" index="0" disallow="tram rail_urban rail rail_electric rail_fast ship" speed="8.33" length="5.00" shape="632.28,600.63 632.68,595.65"/>
    </edge>
    <edge id=":1603176722_0" function="internal">
        <lane id=":1603176722_0_0" index="0" allow="pedestrian delivery bicycle" speed="3.65" length="4.67" shape="657.25,511.65 656.55,510.39 655.79,509.92 654.96,510.25 654.06,511.38"/>
    </edge>
    <edge id=":1603176724_0" function="internal">
        <lane id=":1603176724_0_0" index="0" allow="pedestrian delivery bicycle" speed="5.56" length="9.40" shape="671.96,542.54 662.58,541.76"/>
    </edge>
    <edge id=":1603176724_1" function="internal">
        <lane id=":1603176724_1_0" index="0" allow="pedestrian delivery bicycle" speed="5.56" length="10.16" shape="671.96,542.54 669.18,542.70 667.12,543.71 665.77,545.58 665.15,548.29"/>
    </edge>
    <edge id=":1603176724_2" function="internal">
        <lane id=":1603176724_2_0" index="0" allow="pedestrian delivery bicycle" speed="3.65" length="4.67" shape="671.96,542.54 670.69,543.24 670.23,544.00 670.56,544.83 671.69,545.73"/>
    </edge>
    <edge id=":1603176724_3" function="internal">
        <lane id=":1603176724_3_0" index="0" allow="pedestrian delivery bicycle" speed="5.04" length="5.00" shape="668.34,548.56 668.65,547.23 669.31,546.31 670.32,545.81 671.69,545.73"/>
    </edge>
    <edge id=":1603176724_4" function="internal">
        <lane id=":1603176724_4_0" index="0" allow="pedestrian delivery bicycle" speed="5.56" length="10.17" shape="668.34,548.56 668.18,545.78 667.16,543.72 665.30,542.38 662.58,541.76"/>
    </edge>
    <edge id=":1603176724_5" function="internal">
        <lane id=":1603176724_5_0" index="0" allow="pedestrian delivery bicycle" speed="3.65" length="4.67" shape="668.34,548.56 667.64,547.30 666.88,546.83 666.05,547.17 665.15,548.29"/>
    </edge>
    <edge id=":1603176724_6" function="internal">
        <lane id=":1603176724_6_0" index="0" allow="pedestrian delivery bicycle" speed="5.04" length="5.00" shape="662.32,544.95 663.66,545.25 664.57,545.91 665.07,546.93 665.15,548.29"/>
    </edge>
    <edge id=":1603176724_7" function="internal">
        <lane id=":1603176724_7_0" index="0" allow="pedestrian delivery bicycle" speed="5.56" length="9.40" shape="662.32,544.95 671.69,545.73"/>
    </edge>
    <edge id=":1603176724_8" function="internal">
        <lane id=":1603176724_8_0" index="0" allow="pedestrian delivery bicycle" speed="3.65" length="4.67" shape="662.32,544.95 663.58,544.25 664.05,543.49 663.71,542.65 662.58,541.76"/>
    </edge>
    <edge id=":1603176729_0" function="internal">
        <lane id=":1603176729_0_0" index="0" allow="pedestrian delivery bicycle" speed="5.01" length="5.04" shape="663.94,564.59 663.67,565.95 663.03,566.89 662.02,567.40 660.64,567.48"/>
    </edge>
    <edge id=":1603176729_1" function="internal">
        <lane id=":1603176729_1_0" index="0" allow="pedestrian delivery bicycle" speed="6.94" length="10.17" shape="663.94,564.59 664.18,567.40 665.23,569.47 667.09,570.82 669.75,571.43"/>
    </edge>
    <edge id=":1603176729_2" function="internal">
        <lane id=":1603176729_2_0" index="0" allow="pedestrian delivery bicycle" speed="3.65" length="4.67" shape="663.94,564.59 664.68,565.83 665.45,566.27 666.27,565.91 667.13,564.75"/>
    </edge>
    <edge id=":1603176729_3" function="internal">
        <lane id=":1603176729_3_0" index="0" allow="pedestrian delivery bicycle" speed="5.14" length="5.13" shape="670.01,568.24 668.69,567.93 667.77,567.24 667.25,566.18 667.13,564.75"/>
    </edge>
    <edge id=":1603176729_4" function="internal">
        <lane id=":1603176729_4_0" index="0" disallow="tram rail_urban rail rail_electric rail_fast ship" speed="8.33" length="9.40" shape="670.01,568.24 660.64,567.48"/>
    </edge>
    <edge id=":1603176729_5" function="internal">
        <lane id=":1603176729_5_0" index="0" disallow="tram rail_urban rail rail_electric rail_fast ship" speed="8.33" length="9.41" shape="660.38,570.67 669.75,571.43"/>
    </edge>
    <edge id=":1603176729_6" function="internal">