<?xml version="1.0" encoding="UTF-8"?>

<!-- generated on 2022-08-07 11:34:13 by Eclipse SUMO polyconvert Version 1.14.1
<configuration xmlns:xsi="http://www.w3.org/2001/XMLSchema-instance" xsi:noNamespaceSchemaLocation="http://sumo.dlr.de/xsd/polyconvertConfiguration.xsd">

    <input>
        <net-file value="berlin.net.xml"/>
        <osm-files value="berlin.osm"/>
    </input>

    <output>
        <output-file value="berlin.poly.xml"/>
    </output>

</configuration>
-->

<additional xmlns:xsi="http://www.w3.org/2001/XMLSchema-instance" xsi:noNamespaceSchemaLocation="http://sumo.dlr.de/xsd/additional_file.xsd">
    <location netOffset="-390237.06,-5818363.23" convBoundary="-1032.79,-11732.05,9385.11,3976.74" origBoundary="13.366460,52.400521,13.524162,52.540048" projParameter="+proj=utm +zone=33 +ellps=WGS84 +datum=WGS84 +units=m +no_defs"/>

    <poly id="1029477571" type="amenity" color="237,199,199" fill="1" layer="-1.00" shape="342.245249,487.412083 343.944058,488.386760 353.339756,472.219877 351.647481,471.233922 342.245249,487.412083"/>
    <poly id="1043697700" type="natural" color="140,196,107" fill="1" layer="-4.00" shape="1109.177388,747.221079 1109.675399,740.900683 1148.574063,743.799258 1147.851447,750.402818 1147.542620,750.865896 1146.070066,752.122580 1143.713877,752.720072 1141.524513,752.267872 1137.966893,750.121232 1136.643527,749.839002 1135.737178,749.992630 1133.620954,751.308100 1131.623065,751.530442 1130.117467,751.296765 1129.659853,751.173381 1127.568097,749.305818 1126.194023,748.880056 1124.297302,749.378348 1122.371452,751.012302 1121.464117,751.121443 1119.213701,748.222535 1118.195951,747.332642 1116.782513,747.274966 1115.019657,747.992845 1113.044214,749.227309 1111.594009,749.348492 1110.762804,748.910695 1109.177388,747.221079"/>
    <poly id="1043697710" type="landuse" color="194,194,130" fill="1" layer="-3.00" shape="1184.940346,859.120738 1178.275893,895.677955 1163.199106,874.313342 1184.940346,859.120738"/>
    <poly id="1043697712" type="landuse" color="194,194,130" fill="1" layer="-3.00" shape="1187.480716,857.339656 1179.981631,898.511068 1186.026275,905.665668 1231.479244,873.211879 1209.221859,842.136040 1187.480716,857.339656"/>
    <poly id="1046184819" type="natural" color="140,196,107" fill="1" layer="-4.00" shape="635.671456,250.481249 620.477777,249.361940 620.556723,246.199934 623.099367,246.343596 625.698780,246.597270 629.314003,247.340193 632.232385,247.586767 634.347771,248.363097 635.671456,250.481249"/>
    <poly id="1046184820" type="natural" color="140,196,107" fill="1" layer="-4.00" shape="649.805833,244.279960 649.444258,248.472000 643.968920,251.097649 641.098791,250.883376 643.133576,248.345472 645.501450,246.434426 646.891760,245.446488 648.740982,244.637502 649.805833,244.279960"/>
    <poly id="1046188031" type="landuse" color="194,194,130" fill="1" layer="-3.00" shape="989.530233,260.940218 992.582964,225.030445 1013.055222,226.890575 1018.764047,238.447854 1016.894035,263.103607 989.530233,260.940218"/>
    <poly id="1046188032" type="landuse" color="194,194,130" fill="1" layer="-3.00" shape="1014.630386,280.423882 1011.907752,280.428672 987.801588,278.805012 989.364793,263.581132 1016.144321,266.035677 1014.630386,280.423882"/>
    <poly id="1046188033" type="landuse" color="194,194,130" fill="1" layer="-3.00" shape="1032.100500,266.950118 1035.969094,275.443651 1019.912900,280.117474 1020.541900,269.298614 1030.165847,270.030884 1029.361324,266.821734 1032.100500,266.950118"/>
    <poly id="1056820805" type="building" color="255,230,230" fill="1" layer="-1.00" shape="302.238779,480.338310 302.063783,482.534369 302.206670,484.979262 302.426426,486.610119 303.741442,489.551826 305.506492,491.971606 307.705518,493.758543 309.987376,494.998375 312.074078,495.708440 314.469297,495.944252 316.059515,496.008878 316.212447,495.560355 316.814110,485.109169 314.251714,484.988367 312.690766,483.498747 312.777949,480.714885 302.238779,480.338310"/>
    <poly id="1075684741" type="historic" color="128,255,128" fill="1" layer="-1.00" shape="958.609107,314.149043 966.186661,314.459268 966.298040,311.830680 958.720482,311.520455 958.609107,314.149043"/>
    <poly id="1080545901" type="landuse" color="194,194,130" fill="1" layer="-3.00" shape="1094.395959,662.990282 1089.974598,657.413277 1094.884131,650.716837 1129.077367,652.951850 1130.922374,656.549664 1130.250925,656.887253 1131.329502,658.988709 1132.000705,658.639998 1133.121723,660.818406 1128.245856,665.666878 1127.319157,663.984904 1125.145312,662.397351 1120.652005,661.228444 1113.729071,658.878258 1110.992216,658.538361 1105.164021,658.712129 1101.172363,659.345913 1096.353915,661.578158 1095.093441,662.296027 1094.395959,662.990282"/>
    <poly id="1080545902" type="natural" color="140,196,107" fill="1" layer="-4.00" shape="1128.245856,665.666878 1123.794930,670.083083 1122.555574,668.997806 1119.097824,667.071516 1115.202674,665.933860 1111.320595,665.385680 1106.501549,665.448046 1101.741226,666.321429 1098.673947,667.613497 1098.265182,667.856243 1094.395959,662.990282 1095.093441,662.296027 1096.353915,661.578158 1101.172363,659.345913 1105.164021,658.712129 1110.992216,658.538361 1113.729071,658.878258 1120.652005,661.228444 1125.145312,662.397351 1127.319157,663.984904 1128.245856,665.666878"/>
    <poly id="1080545903" type="natural" color="140,196,107" fill="1" layer="-4.00" shape="1168.810906,690.728237 1168.210126,698.541999 1129.335800,695.531440 1129.959469,687.527995 1168.810906,690.728237"/>
    <poly id="1080545904" type="landuse" color="194,194,130" fill="1" layer="-3.00" shape="1059.083702,666.010315 1069.003230,664.187854 1084.917532,659.294742 1086.078932,658.089454 1086.229216,656.906594 1062.029544,626.809171 1059.083702,666.010315"/>
    <poly id="1080545905" type="natural" color="140,196,107" fill="1" layer="-4.00" shape="1089.551775,681.814359 1058.061013,679.586429 1058.633121,672.018091 1064.954209,670.498019 1068.906495,670.232289 1073.654222,670.627700 1078.388994,670.745213 1082.698594,670.059846 1085.039767,668.783876 1086.894946,666.105481 1088.843041,661.800396 1089.526207,661.685094 1095.618758,669.450551 1093.613794,671.497991 1092.196005,673.387749 1090.497395,676.696942 1089.694042,679.964021 1089.551775,681.814359"/>
    <poly id="1080545906" type="natural" color="140,196,107" fill="1" layer="-4.00" shape="1089.339793,684.500813 1088.727047,692.381620 1057.285951,689.941171 1057.877796,682.038567 1089.339793,684.500813"/>
    <poly id="1080545907" type="natural" color="140,196,107" fill="1" layer="-4.00" shape="1130.143709,685.120348 1130.302896,683.113851 1129.762404,679.865449 1128.599574,676.719868 1127.120515,673.703703 1125.711518,672.010168 1134.854960,663.050005 1138.012197,670.101665 1139.309016,673.166384 1141.713418,676.885330 1144.196704,677.731609 1146.349329,678.362667 1169.617174,680.239298 1168.995163,688.320592 1130.143709,685.120348"/>
    <poly id="1080545908" type="landuse" color="194,194,130" fill="1" layer="-3.00" shape="1171.182596,636.306236 1164.761900,636.092472 1138.352500,660.646789 1148.990602,668.267017 1159.961091,674.344290 1165.881262,676.483088 1169.134367,669.178042 1171.182596,636.306236"/>
    <poly id="1080545909" type="natural" color="140,196,107" fill="1" layer="-4.00" shape="1151.898820,634.074204 1153.809643,634.209885 1153.175780,643.593373 1151.271993,643.468664 1151.898820,634.074204"/>
    <poly id="1080545910" type="natural" color="140,196,107" fill="1" layer="-4.00" shape="1161.446895,621.922633 1162.751637,623.507212 1162.973074,625.227081 1162.394145,626.063356 1159.448129,626.395723 1146.230271,625.831921 1143.634635,627.881307 1140.491128,633.392396 1135.834497,636.800538 1135.422151,645.455824 1140.987850,650.284203 1140.777464,651.512904 1133.004157,650.617005 1134.756909,625.863747 1093.732772,622.990138 1067.424954,621.203557 1067.698499,615.477900 1161.446895,621.922633"/>
    <poly id="1080545911" type="landuse" color="194,194,130" fill="1" layer="-3.00" shape="1135.071790,659.662408 1134.334590,659.178011 1131.970906,654.234130 1132.069005,653.453023 1140.521905,653.766345 1140.649844,654.331015 1135.071790,659.662408"/>
    <poly id="1080545912" type="landuse" color="194,194,130" fill="1" layer="-3.00" shape="1084.323731,649.971857 1092.032154,650.390631 1088.616537,656.486427 1083.993065,650.368658 1084.323731,649.971857"/>
    <poly id="1081674674" type="building" color="255,230,230" fill="1" layer="-1.00" shape="577.364722,298.560756 578.078410,285.492136 579.574802,284.390538 598.272717,285.542920 597.792244,293.843712 595.997381,293.739042 595.815776,298.082866 596.355284,298.527079 594.674322,299.877591 577.364722,298.560756"/>
    <poly id="112148761" type="building" color="255,230,230" fill="1" layer="-1.00" shape="441.364607,234.716087 441.436951,234.002304 441.743341,234.039979 442.556453,224.529956 442.229951,224.503858 442.302296,223.790074 443.281803,223.868370 443.259123,224.069173 457.013432,225.186664 464.727075,225.804658 464.795206,224.901799 465.781498,224.979948 465.713368,225.882807 479.882641,227.035616 480.074371,224.672279 478.890274,224.554029 479.323650,219.325499 477.698173,219.205966 477.957788,215.928649 475.414378,215.751696 475.441861,215.461764 475.658289,215.423554 485.114531,216.236395 483.586320,238.136294 479.675341,237.834052 463.242935,236.587068 455.516232,235.991623 449.510508,235.535838 441.364607,234.716087"/>
    <poly id="112148762" type="building" color="255,230,230" fill="1" layer="-1.00" shape="363.176904,227.981892 372.733209,228.714388 375.379163,228.922382 376.142242,219.001737 376.200259,218.254890 373.554548,218.058018 368.643674,217.678038 368.806881,215.560140 369.772818,215.638724 370.125965,211.079631 364.514570,210.648528 363.176904,227.981892"/>
    <poly id="112148765" type="building" color="255,230,230" fill="1" layer="-1.00" shape="492.013325,225.986143 502.401293,226.867260 503.006565,225.996935 504.408014,225.509452 504.855310,217.554343 502.492393,214.813994 501.999606,215.247833 500.025778,215.035911 497.274621,215.286429 496.399326,214.705056 494.302594,214.462494 493.694208,213.975317 490.434533,218.521321 490.189048,222.432598 492.013325,225.986143"/>
    <poly id="112148770" type="building" color="255,230,230" fill="1" layer="-1.00" shape="337.606810,226.204926 363.176904,227.981892 364.514570,210.648528 365.468315,198.320052 358.530526,197.785038 357.430727,212.086371 356.031030,213.564219 351.655797,213.150040 352.871855,197.366131 339.928276,196.375484 338.516622,214.344785 337.606810,226.204926"/>
    <poly id="112148773" type="building" color="255,230,230" fill="1" layer="-1.00" shape="257.304490,205.988399 257.915569,203.860487 246.769475,200.660021 245.231859,205.991154 241.569730,218.647264 263.777799,220.376458 263.831001,219.718737 264.980676,219.815450 266.089134,219.890828 266.043216,220.570642 284.516459,221.982796 284.564865,221.414203 285.714291,221.499799 286.986372,221.604909 286.944753,222.173349 304.241411,223.500589 305.431803,223.596401 305.468874,223.128211 306.312404,223.198389 307.591022,223.292231 307.548655,223.827305 326.015082,225.239767 326.051907,224.760455 327.140003,224.836302 328.262280,224.922513 328.220407,225.479831 332.702727,225.824831 337.606810,226.204926 338.516622,214.344785 333.687428,213.974144 257.371828,208.090022 251.819200,211.808352 250.829222,210.350499 257.304490,205.988399"/>
    <poly id="112148774" type="building" color="255,230,230" fill="1" layer="-1.00" shape="483.586320,238.136294 485.114531,216.236395 475.658289,215.423554 476.106478,210.250332 469.497051,209.518668 470.410233,198.404039 472.172195,198.553909 472.222360,198.063174 472.990988,198.123924 472.930475,198.759549 477.008652,199.859247 481.668426,200.244936 481.146600,207.901264 500.113060,209.815101 518.589874,211.695417 516.339692,240.810980 483.586320,238.136294"/>
    <poly id="112149771" type="building" color="255,230,230" fill="1" layer="-1.00" shape="540.435590,242.866541 540.554215,242.096090 539.674870,241.637203 538.867450,241.054309 538.158606,240.324558 537.583510,239.502805 537.155736,238.588747 536.889849,237.626569 536.773019,236.649941 536.464646,236.523284 537.551693,222.845440 539.937283,192.792153 554.506047,193.891765 556.687788,193.987799 556.293531,197.624195 554.362953,200.571536 553.805208,200.528328 553.288265,205.057670 555.455618,206.945573 554.748390,216.341933 549.549425,218.572060 548.552740,229.299062 549.064215,229.398938 548.660487,232.000676 549.587648,233.081646 550.527175,233.194237 552.105951,229.086333 555.389058,230.159306 553.886452,233.419810 553.148491,243.873981 548.401037,243.512436 543.149639,243.084234 540.435590,242.866541"/>
    <poly id="112149774" type="building" color="255,230,230" fill="1" layer="-1.00" shape="579.641753,245.954195 581.949438,218.183837 582.195949,215.229521 593.057742,216.044633 592.985031,217.047740 595.481176,217.236935 594.824890,225.875472 588.016617,225.359505 587.554206,231.423241 593.899989,231.905001 592.749000,246.986333 579.641753,245.954195"/>
    <poly id="112149784" type="building" color="255,230,230" fill="1" layer="-1.00" shape="620.022130,173.426009 619.517517,180.035934 639.167335,181.534494 639.667418,175.024822 643.469350,175.307365 642.387092,189.519193 654.255830,190.423295 655.411837,175.252853 655.717547,171.295738 657.179280,152.168182 639.257142,150.809112 638.264749,163.872793 636.203920,163.718392 636.261234,162.938181 631.996558,162.610311 632.347478,157.940019 612.935840,156.469560 612.583700,161.084243 607.890466,160.721429 606.997127,172.436470 620.022130,173.426009"/>
    <poly id="112149797" type="building" color="255,230,230" fill="1" layer="-1.00" shape="593.899989,231.905001 594.010047,230.444829 606.844380,231.416320 606.498546,236.008609 607.885986,236.111232 607.434152,242.041198 607.292043,243.891551 605.652758,243.761156 605.331692,247.941171 592.749000,246.986333 593.899989,231.905001"/>
    <poly id="112149798" type="building" color="255,230,230" fill="1" layer="-1.00" shape="561.261226,149.063759 543.658758,147.731295 542.554931,161.876869 541.057949,181.839834 552.520524,182.797255 553.634321,168.184100 560.333843,168.691319 559.704104,176.995441 583.597774,178.799796 584.227552,170.495677 588.995433,170.856805 588.401258,178.626003 606.418329,179.982770 606.997127,172.436470 607.890466,160.721429 603.285954,160.378899 604.048025,150.391564 584.316625,148.894957 583.554595,158.882295 579.364811,158.563929 579.722716,153.904604 564.643599,152.760648 564.301606,157.219324 562.703259,157.099157 562.644468,157.812636 560.610780,157.657661 561.261226,149.063759"/>
    <poly id="121674886" type="building" color="255,230,230" fill="1" layer="-1.00" shape="1070.353435,925.167020 1070.457070,924.942169 1069.931983,924.530970 1069.713114,923.845915 1069.909896,923.229530 1070.301612,922.831372 1070.175029,922.633884 1094.175280,905.855127 1101.662907,916.538453 1096.459411,920.070051 1096.991897,920.814916 1097.137843,922.803520 1096.708001,923.625370 1102.843934,926.627250 1097.155806,938.303877 1070.353435,925.167020"/>
    <poly id="128396193" type="building" color="255,230,230" fill="1" layer="-1.00" shape="1195.072566,662.572017 1192.489849,694.921529 1170.256758,693.166515 1172.838344,660.772501 1180.945502,661.416255 1180.760251,663.779411 1187.350674,664.301006 1187.536668,661.971217 1195.072566,662.572017"/>
    <poly id="128396194" type="building" color="255,230,230" fill="1" layer="-1.00" shape="1187.536668,661.971217 1195.072566,662.572017 1211.110430,663.863522 1214.028921,626.743978 1205.590673,626.174269 1205.418487,628.514878 1199.000134,628.100721 1199.086695,625.572839 1190.645732,624.880812 1187.536668,661.971217"/>
    <poly id="134681701" type="parking" color="184,184,179" fill="1" layer="-1.00" shape="131.847149,590.562000 154.032270,597.710331 184.390464,607.224191 201.238752,612.544755 205.712995,501.112357 207.785170,480.524345 167.457258,468.807483 152.906064,518.539866 131.847149,590.562000"/>
    <poly id="138554284" type="commercial" color="209,209,204" fill="1" layer="-3.00" shape="303.891941,852.132292 288.285900,850.711712 288.237753,851.291427 285.083694,851.117102 284.341900,860.759114 283.906618,860.724331 282.566987,878.246966 282.988696,878.282053 282.236325,888.057834 281.632945,895.994220 280.224762,914.397476 279.231432,927.060710 292.810464,928.014676 292.825428,927.469086 295.477548,927.665757 295.435193,928.200832 296.652309,928.284911 298.992537,928.499682 300.883173,928.646606 300.938852,928.100106 303.319545,928.302847 303.283974,928.837770 315.621469,929.830668 353.372311,932.737416 356.133492,932.953940 356.078055,933.511562 395.019299,936.525575 395.055625,936.024019 397.578807,936.223625 398.828297,920.728280 400.763128,897.917890 391.965890,897.068289 387.883549,896.669816 356.263750,893.492331 356.251093,893.837571 349.389670,893.334281 332.709075,892.126735 330.206223,891.926708 325.649618,891.572264 327.455261,867.551805 302.983781,865.572551 303.891941,852.132292"/>
    <poly id="138554287" type="commercial" color="209,209,204" fill="1" layer="-3.00" shape="271.554184,1024.310116 295.293799,1026.383435 314.251247,1028.029583 325.413355,1028.993120 346.377473,1030.817116 351.900719,1031.294645 360.300442,1031.986129 377.861843,1033.441147 388.030010,1034.282361 410.447410,1036.129819 429.749834,1037.724200 453.132969,1039.650447 454.311338,1024.612940 456.013573,1002.931659 457.287055,986.679117 458.481597,971.452082 459.104859,963.481900 451.717830,962.845539 436.522066,961.537751 408.232226,959.097951 393.648628,957.843395 389.778181,957.506957 383.326968,957.127997 372.174479,956.297640 364.659988,955.731022 357.601123,955.198750 347.135461,954.419877 339.369398,953.836660 337.254600,953.683601 326.720826,952.895166 322.626940,952.586027 313.934299,951.856636 288.991790,949.743331 277.415073,948.766882 274.410605,987.480439 271.554184,1024.310116"/>
    <poly id="146824851" type="building" color="255,230,230" fill="1" layer="-1.00" shape="981.755809,915.015626 963.723681,887.174185 963.502717,887.312624 960.394998,882.496621 960.867279,877.167132 961.105273,877.184101 962.331077,863.903886 962.038550,863.877000 962.419191,859.617797 961.501141,859.549165 962.268353,851.297691 963.141375,851.478599 963.495007,847.531569 967.567081,847.774963 967.600371,846.828376 975.826196,847.324488 975.779332,848.271375 979.980333,848.511916 979.826002,849.205255 981.431989,848.457426 981.351172,848.181031 987.202890,844.490259 987.387716,844.864494 995.333011,839.758550 995.197168,839.449993 1001.879229,835.240061 1006.315813,847.315174 999.393053,851.385785 1005.450515,860.631880 1010.065511,857.502717 1012.152508,863.131469 1013.122286,865.836206 1009.744255,867.802890 1014.579487,875.206689 1016.272450,874.401303 1021.415442,888.330185 1016.993551,891.288138 1005.800358,898.713931 981.755809,915.015626"/>
    <poly id="146824852" type="building" color="255,230,230" fill="1" layer="-1.00" shape="829.778767,957.528608 831.419495,937.584797 846.318071,938.355162 845.110474,953.660243 843.765287,970.715421 843.696967,971.306704 836.209968,970.749882 828.540746,970.241634 829.778767,957.528608"/>
    <poly id="147030009" type="building" color="255,230,230" fill="1" layer="-1.00" shape="988.784164,770.467653 988.500337,774.502150 969.434035,773.178487 969.567985,771.261563 970.541777,757.330421 987.989645,758.534238 988.205012,755.391470 1007.210055,756.705441 1007.520422,752.336528 1026.484507,753.640355 1025.618991,766.033466 1025.408658,769.098227 1007.382809,767.851471 1007.109082,771.729956 988.784164,770.467653"/>
    <poly id="147030010" type="building" color="255,230,230" fill="1" layer="-1.00" shape="1122.876629,869.309762 1123.367661,870.022167 1123.194193,870.159545 1119.519588,864.877532 1114.960053,868.060998 1115.675136,869.080006 1109.965485,873.056789 1103.431758,863.754370 1108.439521,860.271634 1107.704078,859.253079 1122.599961,848.874491 1123.362053,849.870203 1128.135795,846.548464 1127.353594,845.564325 1142.075843,835.312055 1142.764275,836.353912 1147.899050,832.779382 1147.136962,831.783667 1162.186865,821.301643 1169.455718,831.611581 1164.294276,835.208935 1165.865076,837.466399 1164.180460,838.649886 1165.064066,839.921100 1161.794650,842.196841 1162.292958,842.931344 1162.105422,843.046777 1160.023975,840.110723 1158.424796,837.798252 1153.905432,840.958534 1154.579796,841.978450 1145.126041,848.564163 1146.696847,850.821622 1145.038889,851.982269 1145.889062,853.276476 1142.619664,855.552231 1143.117727,856.275609 1142.937225,856.402015 1139.175898,851.188676 1134.629662,854.360700 1135.344743,855.379711 1125.376185,862.321835 1126.946995,864.579287 1125.262151,865.751665 1126.146009,867.033994 1122.876629,869.309762"/>
    <poly id="147082781" type="landuse" color="194,194,130" fill="1" layer="-3.00" shape="617.487543,906.626841 619.630723,879.104939 621.568788,877.114423 626.327709,877.408997 630.005981,879.174242 632.826982,881.770906 634.397963,883.416184 635.474978,885.439678 637.069605,889.365597 638.231280,893.056352 638.976247,896.021965 639.754906,900.500188 640.232270,904.862718 640.399323,909.009607 640.521614,914.804385 624.299803,913.763675 622.810179,909.980080 621.673637,908.636701 620.258538,907.588847 618.688760,906.911652 617.487543,906.626841"/>
    <poly id="147082782" type="landuse" color="194,194,130" fill="1" layer="-3.00" shape="616.204020,921.844672 614.343184,950.762371 615.741195,952.567284 618.048018,953.417226 621.578860,953.138262 624.744061,951.988362 628.191820,949.808427 630.838328,947.012068 632.494785,944.571595 633.999523,941.110760 635.908069,936.272230 637.804038,931.478491 639.079545,926.565043 639.833853,922.330864 640.276669,918.437452 623.448716,917.310099 621.983586,919.501504 620.690709,920.587434 619.187325,921.366481 617.249259,921.832512 616.204020,921.844672"/>
    <poly id="147082783" type="landuse" color="194,194,130" fill="1" layer="-3.00" shape="641.575221,878.593824 672.091021,880.373392 674.375283,882.648201 674.274045,884.809218 673.405033,886.942821 671.384088,889.480416 668.770412,891.619489 666.217510,893.134062 663.103476,894.449708 658.521454,895.085881 654.448404,894.798256 650.404521,893.686539 646.694417,891.710563 643.357415,888.502238 641.074174,885.359463 640.121135,883.110653 640.068117,880.730519 641.575221,878.593824"/>
    <poly id="147111555" type="parking" color="184,184,179" fill="1" layer="-1.00" shape="691.854462,562.328379 665.761372,560.149688 645.013965,558.686647 648.606636,509.344594 682.208042,511.467310 685.376363,511.663834 684.614613,523.498338 695.062239,524.345129 691.854462,562.328379"/>
    <poly id="147228425" type="leisure" color="207,245,201" fill="1" layer="-2.00" shape="1099.616133,853.034100 1095.875579,855.186806 1093.744148,846.632447 1087.297468,834.523961 1080.680727,838.009030 1065.867974,809.294619 1062.642378,810.790522 1063.177830,806.772703 1064.878555,780.918921 1068.026075,781.717039 1147.351063,795.814516 1163.165376,807.559622 1099.616133,853.034100"/>
    <poly id="147237713" type="building" color="255,230,230" fill="1" layer="-1.00" shape="825.710392,792.585245 820.469615,792.301191 809.949181,791.511411 777.232037,789.067771 758.027514,787.636728 756.807235,803.887966 753.253820,851.059171 752.247698,864.423591 761.421446,865.109674 790.676740,867.296367 812.873335,868.961429 819.557444,869.736373 825.710392,792.585245"/>
    <poly id="147842139" type="commercial" color="209,209,204" fill="1" layer="-3.00" shape="1346.206846,263.250312 1342.512560,266.291991 1341.743010,265.574599 1328.173175,277.681243 1328.878798,278.578088 1326.164678,280.808031 1326.568634,281.266449 1324.871053,282.795113 1317.268293,289.628795 1293.060986,303.361937 1280.736138,310.355856 1277.917928,304.509508 1268.199383,283.860481 1265.192380,277.461940 1275.909535,272.373014 1262.148457,243.946306 1256.760314,232.125728 1258.291156,231.346280 1256.825769,228.029329 1256.040110,228.425065 1248.438468,232.243254 1242.636050,220.420738 1235.706907,223.945863 1153.044798,263.399814 1176.536017,313.565325 1184.686830,326.570888 1198.992022,356.253880 1194.996109,358.545682 1196.822778,362.232949 1195.849006,365.781971 1192.311506,367.618515 1194.930668,372.445490 1197.301951,376.810599 1207.077604,394.820989 1209.717837,399.680887 1213.787667,407.469051 1215.297718,410.351024 1228.470912,433.393746 1207.233844,444.468825 1225.559876,477.912942 1202.072636,490.996355 1175.992414,505.328005 1189.698423,534.645904 1192.489629,534.984644 1240.513510,505.634346 1246.892046,502.711169 1246.504563,500.850317 1251.790908,497.662020 1252.682811,498.999832 1263.189711,493.637326 1319.105208,457.903886 1318.797257,457.487854 1326.355199,452.936309 1325.409405,451.310360 1336.911232,426.775437 1356.291409,415.842166 1358.691882,414.476000 1359.825239,413.838908 1377.860023,422.497768 1385.211141,418.106679 1384.654067,417.785175 1410.898548,402.238136 1408.274854,398.423763 1403.389504,392.122324 1374.608845,357.784954 1418.596805,314.671965 1418.005099,313.705823 1378.141557,274.695117 1364.450163,261.667160 1363.926076,258.540779 1354.554877,250.202131 1353.799172,251.031164 1339.525762,237.482027 1330.228404,247.824986 1346.206846,263.250312"/>
    <poly id="147843019" type="building" color="255,230,230" fill="1" layer="-1.00" shape="969.269453,435.559318 971.563766,408.012058 866.689836,399.759453 865.743443,412.777542 875.625766,413.537140 875.017931,423.153779 887.970622,423.978698 888.555178,414.841065 910.329796,416.371355 909.568642,425.813353 922.603988,426.692164 923.417119,417.449312 957.392968,420.211014 956.784222,429.182256 956.254147,429.160645 955.928018,434.653798 969.269453,435.559318"/>
    <poly id="147844963" type="building" color="255,230,230" fill="1" layer="-1.00" shape="578.409241,440.192301 577.472855,454.233992 588.690232,455.185812 591.011506,426.202231 586.812344,426.062118 586.697261,425.163344 585.739395,425.140177 585.836803,423.112777 579.467093,422.765101 578.867145,433.928364 583.591327,434.168047 583.265827,440.584820 578.409241,440.192301"/>
    <poly id="147844964" type="building" color="255,230,230" fill="1" layer="-1.00" shape="583.117948,377.883878 555.797456,375.822108 552.288427,413.956849 580.043190,416.320488 580.343277,416.380567 583.117948,377.883878"/>
    <poly id="147844965" type="building" color="255,230,230" fill="1" layer="-1.00" shape="633.055903,424.486648 636.530261,382.024109 583.117948,377.883878 580.343277,416.380567 591.639697,417.219359 603.282368,418.362036 603.100847,420.880926 608.078365,421.215138 608.025823,422.818688 611.562651,423.095978 633.055903,424.486648"/>
    <poly id="147849807" type="building" color="255,230,230" fill="1" layer="-1.00" shape="575.732546,390.155323 574.804096,408.514361 559.187401,407.282281 560.844169,389.007154 575.732546,390.155323"/>
    <poly id="147850773" type="building" color="255,230,230" fill="1" layer="-1.00" shape="374.084603,362.238299 381.322251,362.833399 399.838694,364.078088 405.701504,364.525869 402.129775,417.139232 400.682418,434.730973 393.579026,441.666273 388.872959,436.763881 388.899277,436.117890 382.001469,435.837897 382.667256,422.169403 393.224332,422.734925 394.820946,421.564264 395.642446,408.482063 394.634755,406.835408 356.164457,404.422757 356.961688,390.562152 395.683439,392.980328 397.390715,391.595773 398.751671,377.433278 385.895063,376.362691 385.889104,377.008228 373.135033,375.968768 374.084603,362.238299"/>
    <poly id="148870945" type="leisure" color="207,245,201" fill="1" layer="-2.00" shape="1163.199106,874.313342 1184.940346,859.120738 1187.480716,857.339656 1209.221859,842.136040 1215.151858,837.987580 1223.241386,832.333567 1224.859147,831.196092 1237.494776,822.359041 1255.646203,809.672108 1248.671133,799.745006 1240.300705,805.594366 1213.191151,824.566635 1204.158629,830.864707 1189.798236,840.908470 1156.223929,864.386369 1163.199106,874.313342"/>
    <poly id="170266370" type="building" color="255,230,230" fill="1" layer="-1.00" shape="504.336897,182.124369 504.662597,178.155667 502.730715,177.998447 504.412454,157.497219 506.439606,157.663444 507.069325,149.971332 505.157792,149.813657 506.880956,128.732870 508.493137,128.863838 508.803942,125.140277 509.538648,125.201790 525.211539,126.477001 523.870816,142.786623 522.183987,142.657315 521.997282,144.942643 525.480271,145.232206 524.972399,151.385984 523.305685,151.245099 521.646795,171.556638 519.769204,171.398200 519.602954,173.382626 522.956480,173.652819 522.470309,179.561305 521.089388,179.447433 520.757880,183.460773 504.336897,182.124369"/>
    <poly id="182566447" type="building" color="255,230,230" fill="1" layer="-1.00" shape="465.937831,374.442986 469.805337,379.497687 471.280942,385.685126 470.116885,391.942573 466.506277,397.186342 461.073730,400.501164 454.763961,401.320715 448.667088,399.509398 443.828614,395.366589 441.100137,389.629962 440.937831,383.268569 443.379845,377.383195 448.001362,373.018194 454.003644,370.892434 460.350012,371.407385 465.937831,374.442986"/>
    <poly id="182566447#1" type="tourism" color="207,245,201" fill="1" layer="-2.00" shape="465.937831,374.442986 469.805337,379.497687 471.280942,385.685126 470.116885,391.942573 466.506277,397.186342 461.073730,400.501164 454.763961,401.320715 448.667088,399.509398 443.828614,395.366589 441.100137,389.629962 440.937831,383.268569 443.379845,377.383195 448.001362,373.018194 454.003644,370.892434 460.350012,371.407385 465.937831,374.442986"/>